Version 4
SHEET 1 880 680
WIRE -400 32 -608 32
WIRE -64 32 -320 32
WIRE -240 112 -272 112
WIRE -240 144 -240 112
WIRE -272 176 -272 112
WIRE -800 192 -864 192
WIRE -608 192 -608 32
WIRE -608 192 -736 192
WIRE -528 192 -608 192
WIRE -432 192 -464 192
WIRE -304 192 -432 192
WIRE -64 208 -64 32
WIRE -64 208 -240 208
WIRE 16 208 -64 208
WIRE -304 224 -352 224
WIRE -1440 272 -1440 192
WIRE -1296 272 -1296 192
WIRE -1168 272 -1168 192
WIRE -272 272 -272 240
WIRE -352 304 -352 224
WIRE -176 304 -352 304
WIRE -64 304 -64 208
WIRE -64 304 -96 304
WIRE -432 320 -432 192
WIRE -352 320 -352 304
WIRE -1440 416 -1440 352
WIRE -1296 416 -1296 352
WIRE -1168 416 -1168 352
WIRE -432 496 -432 400
WIRE -352 496 -352 400
FLAG -432 496 2.5V
FLAG -352 496 2.5V
FLAG -864 192 Vin
FLAG 16 208 HPF_Out
FLAG -1296 416 0
FLAG -1296 192 2.5V
FLAG -1168 416 0
FLAG -1168 192 Vin
FLAG -240 144 0
FLAG -272 272 5V
FLAG -1440 416 0
FLAG -1440 192 5V
SYMBOL cap -736 176 R90
WINDOW 0 0 32 VBottom 2
WINDOW 3 32 32 VTop 2
SYMATTR InstName C1
SYMATTR Value 100n
SYMBOL cap -464 176 R90
WINDOW 0 0 32 VBottom 2
WINDOW 3 32 32 VTop 2
SYMATTR InstName C2
SYMATTR Value 100n
SYMBOL res -304 16 R90
WINDOW 0 0 56 VBottom 2
WINDOW 3 32 56 VTop 2
SYMATTR InstName R1
SYMATTR Value 9.31Meg
SYMBOL res -416 416 R180
WINDOW 0 36 76 Left 2
WINDOW 3 36 40 Left 2
SYMATTR InstName R2
SYMATTR Value 1.4Meg
SYMBOL res -80 288 R90
WINDOW 0 0 56 VBottom 2
WINDOW 3 32 56 VTop 2
SYMATTR InstName R3
SYMATTR Value 9.53k
SYMBOL res -336 416 R180
WINDOW 0 36 76 Left 2
WINDOW 3 36 40 Left 2
SYMATTR InstName R4
SYMATTR Value 1k
SYMBOL OpAmps\\AD8552 -272 272 M180
SYMATTR InstName U1
SYMBOL voltage -1296 256 R0
WINDOW 123 0 0 Left 0
WINDOW 39 0 0 Left 0
SYMATTR InstName V1
SYMATTR Value 2.5
SYMBOL voltage -1168 256 R0
WINDOW 123 24 124 Left 2
WINDOW 39 0 0 Left 0
SYMATTR InstName V2
SYMATTR Value SINE(0.3 10 100)
SYMATTR Value2 AC 1
SYMBOL voltage -1440 256 R0
WINDOW 123 0 0 Left 0
WINDOW 39 0 0 Left 0
SYMATTR InstName V3
SYMATTR Value 5
